opendss_networks/LV12_248bus/Loads.dss
new load.Ld85_LOAD_A phases=1 bus1=B733.1.4 kv=0.249992666559  vminpu=0.1 vmaxpu=2
new load.Ld89_LOAD_B phases=1 bus1=B474.2.4 kv=0.249992666559  vminpu=0.1 vmaxpu=2
new load.Ld105_LOAD_C phases=1 bus1=B1231.3.4 kv=0.249992666559  vminpu=0.1 vmaxpu=2
new load.Ld141_LOAD_A phases=1 bus1=B2559.1.4 kv=0.249992666559  vminpu=0.1 vmaxpu=2
new load.Ld187_LOAD_B phases=1 bus1=B2828.2.4 kv=0.249992666559  vminpu=0.1 vmaxpu=2
new load.Ld274_LOAD_C phases=1 bus1=B332.3.4 kv=0.249992666559  vminpu=0.1 vmaxpu=2
new load.Ld454_LOAD_A phases=1 bus1=B547.1.4 kv=0.249992666559  vminpu=0.1 vmaxpu=2
new load.Ld468_LOAD_B phases=1 bus1=B243.2.4 kv=0.249992666559  vminpu=0.1 vmaxpu=2
new load.Ld541_LOAD_C phases=1 bus1=B1204.3.4 kv=0.249992666559  vminpu=0.1 vmaxpu=2
new load.Ld575_LOAD_A phases=1 bus1=B1035.1.4 kv=0.249992666559  vminpu=0.1 vmaxpu=2
new load.Ld579_LOAD_B phases=1 bus1=B1507.2.4 kv=0.249992666559  vminpu=0.1 vmaxpu=2
new load.Ld596_LOAD_C phases=1 bus1=B604.3.4 kv=0.249992666559  vminpu=0.1 vmaxpu=2
new load.Ld639_LOAD_A phases=1 bus1=B693.1.4 kv=0.249992666559  vminpu=0.1 vmaxpu=2
new load.Ld716_LOAD_B phases=1 bus1=B2286.2.4 kv=0.249992666559  vminpu=0.1 vmaxpu=2
new load.Ld740_LOAD_C phases=1 bus1=B216.3.4 kv=0.249992666559  vminpu=0.1 vmaxpu=2
new load.Ld788_LOAD_A phases=1 bus1=B2939.1.4 kv=0.249992666559  vminpu=0.1 vmaxpu=2
new load.Ld821_LOAD_B phases=1 bus1=B1456.2.4 kv=0.249992666559  vminpu=0.1 vmaxpu=2
new load.Ld897_LOAD_C phases=1 bus1=B518.3.4 kv=0.249992666559  vminpu=0.1 vmaxpu=2
new load.Ld913_LOAD_A phases=1 bus1=B2334.1.4 kv=0.249992666559  vminpu=0.1 vmaxpu=2
new load.Ld926_LOAD_B phases=1 bus1=B457.2.4 kv=0.249992666559  vminpu=0.1 vmaxpu=2
new load.Ld977_LOAD_C phases=1 bus1=B1963.3.4 kv=0.249992666559  vminpu=0.1 vmaxpu=2
new load.Ld991_LOAD_A phases=1 bus1=B1166.1.4 kv=0.249992666559  vminpu=0.1 vmaxpu=2
new load.Ld999_LOAD_B phases=1 bus1=B2887.2.4 kv=0.249992666559  vminpu=0.1 vmaxpu=2
new load.Ld1010_LOAD_C phases=1 bus1=B978.3.4 kv=0.249992666559  vminpu=0.1 vmaxpu=2
new load.Ld1014_LOAD_A phases=1 bus1=B975.1.4 kv=0.249992666559  vminpu=0.1 vmaxpu=2
new load.Ld1058_LOAD_B phases=1 bus1=B1964.2.4 kv=0.249992666559  vminpu=0.1 vmaxpu=2
new load.Ld1179_LOAD_C phases=1 bus1=B1112.3.4 kv=0.249992666559  vminpu=0.1 vmaxpu=2
new load.Ld1270_LOAD_A phases=1 bus1=B562.1.4 kv=0.249992666559  vminpu=0.1 vmaxpu=2
new load.Ld1277_LOAD_B phases=1 bus1=B2793.2.4 kv=0.249992666559  vminpu=0.1 vmaxpu=2
new load.Ld1283_LOAD_C phases=1 bus1=B399.3.4 kv=0.249992666559  vminpu=0.1 vmaxpu=2
new load.Ld1314_LOAD_A phases=1 bus1=B1313.1.4 kv=0.249992666559  vminpu=0.1 vmaxpu=2
new load.Ld1489_LOAD_B phases=1 bus1=B1755.2.4 kv=0.249992666559  vminpu=0.1 vmaxpu=2
new load.Ld1492_LOAD_C phases=1 bus1=B2219.3.4 kv=0.249992666559  vminpu=0.1 vmaxpu=2
new load.Ld1589_LOAD_A phases=1 bus1=B2716.1.4 kv=0.249992666559  vminpu=0.1 vmaxpu=2
new load.Ld1592_LOAD_B phases=1 bus1=B2082.2.4 kv=0.249992666559  vminpu=0.1 vmaxpu=2
new load.Ld1625_LOAD_C phases=1 bus1=B662.3.4 kv=0.249992666559  vminpu=0.1 vmaxpu=2
new load.Ld1704_LOAD_A phases=1 bus1=B1608.1.4 kv=0.249992666559  vminpu=0.1 vmaxpu=2
new load.Ld1719_LOAD_B phases=1 bus1=B524.2.4 kv=0.249992666559  vminpu=0.1 vmaxpu=2
new load.Ld1724_LOAD_C phases=1 bus1=B2909.3.4 kv=0.249992666559  vminpu=0.1 vmaxpu=2
new load.Ld1861_LOAD_A phases=1 bus1=B2668.1.4 kv=0.249992666559  vminpu=0.1 vmaxpu=2
new load.Ld1893_LOAD_B phases=1 bus1=B1706.2.4 kv=0.249992666559  vminpu=0.1 vmaxpu=2
new load.Ld1985_LOAD_C phases=1 bus1=B929.3.4 kv=0.249992666559  vminpu=0.1 vmaxpu=2
new load.Ld1996_LOAD_A phases=1 bus1=B629.1.4 kv=0.249992666559  vminpu=0.1 vmaxpu=2
new load.Ld2048_LOAD_B phases=1 bus1=B1999.2.4 kv=0.249992666559  vminpu=0.1 vmaxpu=2
new load.Ld2108_LOAD_C phases=1 bus1=B1019.3.4 kv=0.249992666559  vminpu=0.1 vmaxpu=2
new load.Ld2148_LOAD_A phases=1 bus1=B1184.1.4 kv=0.249992666559  vminpu=0.1 vmaxpu=2
new load.Ld2158_LOAD_B phases=1 bus1=B1809.2.4 kv=0.249992666559  vminpu=0.1 vmaxpu=2
new load.Ld2159_LOAD_C phases=1 bus1=B1398.3.4 kv=0.249992666559  vminpu=0.1 vmaxpu=2
new load.Ld2195_LOAD_A phases=1 bus1=B3278.1.4 kv=0.249992666559  vminpu=0.1 vmaxpu=2
new load.Ld2302_LOAD_B phases=1 bus1=B2994.2.4 kv=0.249992666559  vminpu=0.1 vmaxpu=2
new load.Ld2309_LOAD_C phases=1 bus1=B3357.3.4 kv=0.249992666559  vminpu=0.1 vmaxpu=2
new load.Ld2312_LOAD_A phases=1 bus1=B1983.1.4 kv=0.249992666559  vminpu=0.1 vmaxpu=2
new load.Ld2344_LOAD_B phases=1 bus1=B2060.2.4 kv=0.249992666559  vminpu=0.1 vmaxpu=2
new load.Ld2347_LOAD_C phases=1 bus1=B12.3.4 kv=0.249992666559  vminpu=0.1 vmaxpu=2
new load.Ld2369_LOAD_A phases=1 bus1=B2623.1.4 kv=0.249992666559  vminpu=0.1 vmaxpu=2
new load.Ld2432_LOAD_B phases=1 bus1=B1026.2.4 kv=0.249992666559  vminpu=0.1 vmaxpu=2
new load.Ld2455_LOAD_C phases=1 bus1=B2971.3.4 kv=0.249992666559  vminpu=0.1 vmaxpu=2
new load.Ld2466_LOAD_A phases=1 bus1=B3134.1.4 kv=0.249992666559  vminpu=0.1 vmaxpu=2
new load.Ld2496_LOAD_B phases=1 bus1=B3252.2.4 kv=0.249992666559  vminpu=0.1 vmaxpu=2
new load.Ld2518_LOAD_C phases=1 bus1=B2461.3.4 kv=0.249992666559  vminpu=0.1 vmaxpu=2
new load.Ld2549_LOAD_A phases=1 bus1=B79.1.4 kv=0.249992666559  vminpu=0.1 vmaxpu=2
new load.Ld2587_LOAD_B phases=1 bus1=B486.2.4 kv=0.249992666559  vminpu=0.1 vmaxpu=2
new load.Ld2601_LOAD_C phases=1 bus1=B1649.3.4 kv=0.249992666559  vminpu=0.1 vmaxpu=2
new load.Ld2603_LOAD_A phases=1 bus1=B1446.1.4 kv=0.249992666559  vminpu=0.1 vmaxpu=2
new load.Ld2606_LOAD_B phases=1 bus1=B133.2.4 kv=0.249992666559  vminpu=0.1 vmaxpu=2
new load.Ld2612_LOAD_C phases=1 bus1=B295.3.4 kv=0.249992666559  vminpu=0.1 vmaxpu=2
new load.Ld2676_LOAD_A phases=1 bus1=B3203.1.4 kv=0.249992666559  vminpu=0.1 vmaxpu=2
new load.Ld2718_LOAD_B phases=1 bus1=B1411.2.4 kv=0.249992666559  vminpu=0.1 vmaxpu=2
new load.Ld2812_LOAD_C phases=1 bus1=B428.3.4 kv=0.249992666559  vminpu=0.1 vmaxpu=2
new load.Ld2823_LOAD_A phases=1 bus1=B3164.1.4 kv=0.249992666559  vminpu=0.1 vmaxpu=2
new load.Ld2943_LOAD_B phases=1 bus1=B2605.2.4 kv=0.249992666559  vminpu=0.1 vmaxpu=2
new load.Ld2948_LOAD_C phases=1 bus1=B421.3.4 kv=0.249992666559  vminpu=0.1 vmaxpu=2
new load.Ld2949_LOAD_A phases=1 bus1=B3384.1.4 kv=0.249992666559  vminpu=0.1 vmaxpu=2
new load.Ld3014_LOAD_B phases=1 bus1=B2843.2.4 kv=0.249992666559  vminpu=0.1 vmaxpu=2
new load.Ld3023_LOAD_C phases=1 bus1=B3404.3.4 kv=0.249992666559  vminpu=0.1 vmaxpu=2
new load.Ld3081_LOAD_A phases=1 bus1=B930.1.4 kv=0.249992666559  vminpu=0.1 vmaxpu=2
new load.Ld3099_LOAD_B phases=1 bus1=B3228.2.4 kv=0.249992666559  vminpu=0.1 vmaxpu=2
new load.Ld3112_LOAD_C phases=1 bus1=B1810.3.4 kv=0.249992666559  vminpu=0.1 vmaxpu=2
new load.Ld3118_LOAD_A phases=1 bus1=B1040.1.4 kv=0.249992666559  vminpu=0.1 vmaxpu=2
new load.Ld3140_LOAD_B phases=1 bus1=B2905.2.4 kv=0.249992666559  vminpu=0.1 vmaxpu=2
new load.Ld3149_LOAD_C phases=1 bus1=B1484.3.4 kv=0.249992666559  vminpu=0.1 vmaxpu=2
new load.Ld3152_LOAD_A phases=1 bus1=B3116.1.4 kv=0.249992666559  vminpu=0.1 vmaxpu=2
new load.Ld3196_LOAD_B phases=1 bus1=B2332.2.4 kv=0.249992666559  vminpu=0.1 vmaxpu=2
new load.Ld3218_LOAD_C phases=1 bus1=B492.3.4 kv=0.249992666559  vminpu=0.1 vmaxpu=2
new load.Ld3280_LOAD_A phases=1 bus1=B1737.1.4 kv=0.249992666559  vminpu=0.1 vmaxpu=2
new load.Ld3288_LOAD_B phases=1 bus1=B2051.2.4 kv=0.249992666559  vminpu=0.1 vmaxpu=2
new load.Ld3297_LOAD_C phases=1 bus1=B2962.3.4 kv=0.249992666559  vminpu=0.1 vmaxpu=2
new load.Ld3338_LOAD_A phases=1 bus1=B3237.1.4 kv=0.249992666559  vminpu=0.1 vmaxpu=2
new load.Ld3343_LOAD_B phases=1 bus1=B3162.2.4 kv=0.249992666559  vminpu=0.1 vmaxpu=2
new load.Ld3353_LOAD_C phases=1 bus1=B1321.3.4 kv=0.249992666559  vminpu=0.1 vmaxpu=2
new load.Ld3418_LOAD_A phases=1 bus1=B1334.1.4 kv=0.249992666559  vminpu=0.1 vmaxpu=2
new load.Ld3452_LOAD_B phases=1 bus1=B2375.2.4 kv=0.249992666559  vminpu=0.1 vmaxpu=2
new load.Ld3471_LOAD_C phases=1 bus1=B997.3.4 kv=0.249992666559  vminpu=0.1 vmaxpu=2
new load.Ld3487_LOAD_A phases=1 bus1=B2056.1.4 kv=0.249992666559  vminpu=0.1 vmaxpu=2
new load.Ld3618_LOAD_B phases=1 bus1=B815.2.4 kv=0.249992666559  vminpu=0.1 vmaxpu=2
new load.Ld3797_LOAD_C phases=1 bus1=B2009.3.4 kv=0.249992666559  vminpu=0.1 vmaxpu=2
new load.Ld3809_LOAD_A phases=1 bus1=B1180.1.4 kv=0.249992666559  vminpu=0.1 vmaxpu=2
new load.Ld3815_LOAD_B phases=1 bus1=B2092.2.4 kv=0.249992666559  vminpu=0.1 vmaxpu=2
new load.Ld3859_LOAD_C phases=1 bus1=B3250.3.4 kv=0.249992666559  vminpu=0.1 vmaxpu=2
new load.Ld3947_LOAD_A phases=1 bus1=B571.1.4 kv=0.249992666559  vminpu=0.1 vmaxpu=2
new load.Ld3956_LOAD_B phases=1 bus1=B2822.2.4 kv=0.249992666559  vminpu=0.1 vmaxpu=2
new load.Ld4004_LOAD_C phases=1 bus1=B1597.3.4 kv=0.249992666559  vminpu=0.1 vmaxpu=2
new load.Ld4041_LOAD_A phases=1 bus1=B767.1.4 kv=0.249992666559  vminpu=0.1 vmaxpu=2
new load.Ld4104_LOAD_B phases=1 bus1=B2273.2.4 kv=0.249992666559  vminpu=0.1 vmaxpu=2
new load.Ld4194_LOAD_C phases=1 bus1=B3215.3.4 kv=0.249992666559  vminpu=0.1 vmaxpu=2
new load.Ld4235_LOAD_A phases=1 bus1=B2848.1.4 kv=0.249992666559  vminpu=0.1 vmaxpu=2
new load.Ld4242_LOAD_B phases=1 bus1=B2745.2.4 kv=0.249992666559  vminpu=0.1 vmaxpu=2
new load.Ld4247_LOAD_C phases=1 bus1=B2052.3.4 kv=0.249992666559  vminpu=0.1 vmaxpu=2
new load.Ld4343_LOAD_A phases=1 bus1=B1083.1.4 kv=0.249992666559  vminpu=0.1 vmaxpu=2
new load.Ld4384_LOAD_B phases=1 bus1=B1284.2.4 kv=0.249992666559  vminpu=0.1 vmaxpu=2
new load.Ld4419_LOAD_C phases=1 bus1=B2110.3.4 kv=0.249992666559  vminpu=0.1 vmaxpu=2
new load.Ld4423_LOAD_A phases=1 bus1=B986.1.4 kv=0.249992666559  vminpu=0.1 vmaxpu=2
new load.Ld4455_LOAD_B phases=1 bus1=B2771.2.4 kv=0.249992666559  vminpu=0.1 vmaxpu=2
new load.Ld4586_LOAD_C phases=1 bus1=B2613.3.4 kv=0.249992666559  vminpu=0.1 vmaxpu=2
new load.Ld4596_LOAD_A phases=1 bus1=B2067.1.4 kv=0.249992666559  vminpu=0.1 vmaxpu=2
new load.Ld4623_LOAD_B phases=1 bus1=B1924.2.4 kv=0.249992666559  vminpu=0.1 vmaxpu=2
new load.Ld4636_LOAD_C phases=1 bus1=B2607.3.4 kv=0.249992666559  vminpu=0.1 vmaxpu=2
new load.Ld4647_LOAD_A phases=1 bus1=B3010.1.4 kv=0.249992666559  vminpu=0.1 vmaxpu=2
new load.Ld4649_LOAD_B phases=1 bus1=B589.2.4 kv=0.249992666559  vminpu=0.1 vmaxpu=2
new load.Ld4679_LOAD_C phases=1 bus1=B372.3.4 kv=0.249992666559  vminpu=0.1 vmaxpu=2
new load.Ld4702_LOAD_A phases=1 bus1=B2976.1.4 kv=0.249992666559  vminpu=0.1 vmaxpu=2
